12
2.6080000000
Si	0.159400	-0.146800	2.081700
Si	-0.751200	-1.938200	-0.195200
Si	3.178800	1.254900	0.069100
Si	1.561400	0.087900	-1.446100
Si	-2.355800	0.494100	0.306500
Si	1.550000	-2.405500	-1.018100
Si	0.766200	1.851600	0.804900
Si	2.133800	-0.952300	0.903900
Si	-2.305400	-0.772000	-1.754600
Si	-1.949000	-1.374400	1.968800
Si	-0.630300	1.079200	-1.689900
Si	-1.357800	2.821500	-0.030900
