12
6.3950000000
Si	3.219800	-1.512400	0.380400
Si	-0.661500	-0.618000	-2.467000
Si	1.525300	2.984600	-0.193700
Si	-3.787200	-0.072200	0.875300
Si	1.112800	-1.497600	-0.950500
Si	-0.177100	1.493300	-1.279200
Si	0.902700	-0.904900	1.645100
Si	-0.529500	-2.613200	0.589400
Si	-2.024200	1.556300	0.386500
Si	2.404100	0.718800	0.009000
Si	-2.142500	-1.021000	-0.441200
Si	0.157300	1.486200	1.446000
