12
6.5130000000
Si	-0.000400	-0.475100	-2.816600
Si	1.191600	0.130000	-0.760100
Si	0.202500	1.619300	1.081800
Si	3.447900	-0.316500	0.259200
Si	2.567900	2.005400	0.419900
Si	-0.141100	-0.740700	1.636200
Si	-1.309100	1.099900	-1.536600
Si	-2.612900	0.248200	0.543500
Si	1.608000	-2.115800	0.584600
Si	-2.268600	-2.046100	1.133900
Si	-0.702200	-2.047300	-0.856500
Si	-1.983700	2.638600	0.310500
