12
8.2660000000
Si	-2.176600	-1.410300	0.139200
Si	-0.717000	-0.001400	-2.072600
Si	-0.280700	0.007400	2.079200
Si	2.793600	-2.256300	0.484200
Si	2.797500	2.253900	0.480600
Si	-2.912000	0.001200	1.962700
Si	-2.180700	1.404900	0.134800
Si	3.117900	-0.001700	-0.046300
Si	0.608300	1.311600	0.081200
Si	-0.828800	-2.415800	-1.660800
Si	0.608500	-1.306900	0.081900
Si	-0.830000	2.413300	-1.664100
