12
9.6930000000
Si	0.897100	1.459300	1.432500
Si	-1.340700	0.546000	1.125700
Si	-3.598500	-0.189400	1.002200
Si	-0.250300	-0.998200	-1.710800
Si	2.634300	0.215400	-0.404100
Si	2.432200	-0.453600	1.975600
Si	1.902400	-2.019800	-1.393400
Si	1.699900	2.591000	-0.689200
Si	-2.833400	1.244000	-0.928400
Si	-0.352700	1.359500	-1.221800
Si	0.633400	-1.781200	0.774400
Si	-1.823600	-1.973000	0.037200
