12
6.9150000000
Si	-1.120500	0.000600	0.729900
Si	-2.217300	-2.136700	-0.445400
Si	2.102300	-2.340200	-0.925500
Si	1.369400	1.393300	1.306000
Si	-0.169300	1.280700	-1.320900
Si	-2.329500	2.108500	-0.429300
Si	2.043700	2.428900	-0.811400
Si	0.084700	-0.036600	2.872400
Si	-3.519500	-0.036400	-0.091600
Si	-0.122300	-1.183800	-1.397100
Si	1.276200	-1.520500	1.243800
Si	2.602100	0.042200	-0.730900
