12
7.7430000000
Si	-0.800900	-2.639000	0.228600
Si	1.518500	-1.707700	0.641900
Si	-0.714600	1.191200	-1.239100
Si	-3.948700	-0.615300	0.615400
Si	0.055000	-1.113400	-1.618100
Si	2.515700	-1.275300	-1.565600
Si	0.270000	1.300300	1.483000
Si	0.868700	2.908400	-0.436000
Si	-1.481900	-0.263900	0.807000
Si	2.382800	0.897900	-0.324200
Si	-3.087600	1.166500	-0.602100
Si	2.423000	0.150300	2.009200
