12
7.7450000000
Si	0.269400	1.300800	1.482600
Si	-1.482200	-0.264000	0.806900
Si	-3.948100	-0.615700	0.615300
Si	0.055500	-1.114200	-1.618400
Si	2.382500	0.898200	-0.324100
Si	2.422800	0.151100	2.009500
Si	2.516500	-1.275200	-1.565100
Si	0.868100	2.908200	-0.436500
Si	-3.087700	1.166600	-0.602300
Si	-0.714500	1.190500	-1.239200
Si	1.518500	-1.707300	0.642200
Si	-0.800700	-2.638900	0.229000
