12
4.1440000000
Si	1.561300	0.364900	-1.352400
Si	0.731100	-1.676400	-0.000100
Si	3.417500	1.187500	0.000300
Si	3.117500	-1.511000	0.000500
Si	1.559800	0.364400	1.351400
Si	-0.450300	1.267500	-2.411300
Si	-1.065300	1.915800	-0.000900
Si	-1.462800	-2.635700	0.000600
Si	-1.867000	-0.624000	-1.499600
Si	-3.226500	0.700900	0.000500
Si	-0.449300	1.269400	2.410600
Si	-1.866000	-0.623300	1.500500
