12
7.2590000000
Si	2.046500	1.497600	0.398100
Si	0.469000	-2.621300	0.557600
Si	0.213200	1.547000	-1.282000
Si	-2.279200	0.739600	-0.066200
Si	-1.204100	-1.568300	-0.967100
Si	-3.286900	-1.404200	0.413400
Si	-1.483800	3.039400	-0.177200
Si	-0.978800	-0.897300	1.621600
Si	0.672100	-0.650500	-2.376400
Si	2.113100	-1.067000	-0.350500
Si	-0.160900	1.493200	1.421600
Si	3.879800	-0.108200	0.807100
