12
6.5070000000
Si	3.449200	0.317500	-0.263300
Si	1.197500	-0.126400	0.774500
Si	-0.148900	0.734100	-1.637500
Si	-0.692600	2.056300	0.844600
Si	-1.306300	-1.095700	1.535100
Si	-0.010000	0.487300	2.818100
Si	1.602200	2.109800	-0.591100
Si	-1.982600	-2.645400	-0.305100
Si	-2.607200	-0.252800	-0.544600
Si	0.200500	-1.619600	-1.067100
Si	-2.271000	2.042500	-1.138100
Si	2.569200	-2.007500	-0.425500
