12
7.3810000000
Si	1.104900	1.591600	0.959600
Si	-0.568200	2.647000	-0.549000
Si	1.582400	-2.987600	0.219300
Si	3.198200	1.538000	-0.352700
Si	-2.142900	1.002700	0.404400
Si	2.389200	-0.728000	-0.066300
Si	0.182900	-1.489500	-1.479700
Si	0.883100	0.941100	-1.623800
Si	-1.990300	-1.529000	-0.380000
Si	-3.835400	0.000100	-0.826900
Si	-0.663600	0.568600	2.429100
Si	-0.140400	-1.555100	1.265900
