12
9.2320000000
Si	3.553800	-0.351100	-0.359400
Si	-1.612300	0.772500	1.513200
Si	0.786700	0.350100	1.627900
Si	-2.245800	2.322900	-0.358700
Si	0.221400	2.112200	-0.707500
Si	1.354500	-0.125600	-1.297600
Si	1.774000	-1.841300	1.109400
Si	-2.757900	-1.441800	1.082800
Si	-2.300400	-0.110800	-0.964800
Si	-0.577000	-1.416200	-2.237300
Si	2.334300	1.818600	0.477200
Si	-0.531300	-2.089300	0.114800
