12
8.5290000000
Si	0.571000	-1.303300	0.094800
Si	-2.183200	-1.454300	0.165500
Si	0.629500	1.298000	0.083600
Si	-0.722000	-0.003000	-2.063600
Si	-2.147300	1.475300	0.133900
Si	2.741400	-2.281700	0.500300
Si	-0.770500	2.409500	-1.691300
Si	3.100100	-0.034900	-0.044200
Si	-2.922400	0.046500	1.924100
Si	-0.829200	-2.406100	-1.678400
Si	-0.296600	0.031500	2.092400
Si	2.829200	2.222400	0.483100
