12
2.1000000000
Si	0.575900	1.007100	-1.661700
Si	-3.202400	1.178900	0.057100
Si	-1.480400	-2.484100	-0.939600
Si	2.428900	-0.677000	-1.730900
Si	-0.144000	-0.116000	2.108800
Si	-0.859900	1.832200	0.766700
Si	-2.081300	-0.977000	0.915800
Si	1.218600	2.843500	-0.108300
Si	0.847300	-1.881700	-0.246900
Si	-1.618100	-0.018700	-1.488100
Si	2.322500	0.594200	0.358100
Si	1.992900	-1.301400	1.969000
