12
0.0000000000
Si	-0.000800	-0.956400	-2.100500
Si	-1.772600	0.755400	-0.951100
Si	-1.811900	-1.807200	-0.421100
Si	-3.777200	-0.152600	0.058400
Si	1.811900	-1.807800	-0.421600
Si	-0.000500	1.714200	1.092600
Si	-0.000100	-1.279100	1.303600
Si	1.772400	0.754300	-0.949900
Si	-1.897000	0.239400	1.809000
Si	0.000400	2.452200	-1.285200
Si	3.778300	-0.152300	0.058800
Si	1.897000	0.239900	1.807100
