12
4.6140000000
Si	0.247200	-0.193700	-1.819200
Si	2.525200	2.688300	0.387600
Si	-0.467000	-2.511800	-1.395200
Si	3.407400	-1.366300	0.551000
Si	2.323700	0.487200	-0.636300
Si	1.094900	-1.736800	0.400600
Si	-0.829800	-1.558200	1.983200
Si	-3.492900	0.928500	0.054000
Si	-1.444100	1.515000	-1.365000
Si	0.226200	2.016000	0.260200
Si	-1.429800	0.839800	1.639400
Si	-2.160900	-1.108000	-0.060100
