12
6.3450000000
Si	0.525500	-2.617500	0.595400
Si	-0.906300	-0.903200	1.639200
Si	-2.383200	0.714500	-0.016000
Si	0.182300	1.511000	-1.276800
Si	2.031700	1.558900	0.389500
Si	-1.117000	-1.516500	-0.953500
Si	0.655800	-0.613600	-2.463000
Si	2.128000	-1.021800	-0.439600
Si	-3.223600	-1.501700	0.390200
Si	-0.154700	1.488400	1.445300
Si	-1.529700	2.990400	-0.174700
Si	3.791300	-0.088800	0.864000
