12
6.2320000000
Si	0.000000	0.865900	-2.338800
Si	-1.656600	1.286300	-0.359100
Si	-1.291000	-1.274900	-1.396000
Si	-3.549000	-0.210000	-0.080700
Si	1.290100	-1.276100	-1.396400
Si	-0.000000	0.866800	1.898700
Si	0.000300	-2.647200	0.718300
Si	1.656500	1.286400	-0.359700
Si	-1.675500	-0.824500	1.379000
Si	-0.000200	2.961100	0.636400
Si	3.549100	-0.209300	-0.081100
Si	1.676200	-0.824500	1.379400
