12
1.8820000000
Si	-2.306000	-0.590300	0.396900
Si	-2.478000	0.724000	-1.668800
Si	-0.644600	-0.970200	-1.700600
Si	-1.229900	-2.836700	-0.128700
Si	-0.822000	1.885400	-0.234100
Si	-1.935100	1.291500	2.007300
Si	0.872900	-1.848400	0.746300
Si	3.192200	-1.181400	-0.012800
Si	1.549700	0.034100	-1.498000
Si	2.121000	0.935900	0.911900
Si	0.187000	0.078100	2.119900
Si	1.493000	2.477900	-0.939300
